LAMMPS (2 Aug 2023)

# single PEG
#

units real
atom_style full
bond_style  harmonic
angle_style harmonic
dihedral_style  harmonic
pair_style  lj/cut/coul/long 12
kspace_style pppm 1e-5
special_bonds lj 0.0 0.0 0.5 coul 0.0 0.0 1.0 angle yes dihedral yes

read_data init.data
Reading data file ...
  orthogonal box = (-12 -12 -12) to (12 12 12)
  reading atoms ...
  66 atoms
  scanning bonds ...
  scanning angles ...
  scanning dihedrals ...
  reading bonds ...
  65 bonds
  reading angles ...
  118 angles
  reading dihedrals ...
  135 dihedrals
Finding 1-2 1-3 1-4 neighbors ...
     4 = max # of 1-2 neighbors
     6 = max # of 1-3 neighbors
    12 = max # of 1-4 neighbors
    14 = max # of special neighbors
include ../PARM.lammps
mass 1 15.9994 # H2O O
mass 2 1.008 # H2O H
mass 3 12.011 # CC32A
mass 4 15.9994 # OC30A
mass 5 1.008 # HCA2
mass 6 15.9994 # OC311
mass 7 1.008 # HCP1

pair_coeff 1 1 0.119431704 3.400251
pair_coeff 2 2 0.0 0.0
pair_coeff 3 3 0.25265643 2.8491607
pair_coeff 4 4 0.06630155 3.5811794
pair_coeff 5 5 0.028293679 2.373408
pair_coeff 6 6 0.0 0.0
pair_coeff 7 7 0.11949714 3.1000042

bond_coeff 1 442.1606 0.972
bond_coeff 2 1109.2926 1.12
bond_coeff 3 399.79163 1.43
bond_coeff 4 400.0343 1.53
bond_coeff 5 179.2543 0.971
bond_coeff 6 155.35373 1.42

angle_coeff 1 47.555878 103.0
angle_coeff 2 30.173132 109.5
angle_coeff 3 47.69405 109.5
angle_coeff 4 55.113907 111.0
angle_coeff 5 65.47197 111.3
angle_coeff 6 54.993103 110.3
angle_coeff 7 55.0234 111.4
angle_coeff 8 180.46019 109.0
angle_coeff 9 30.173132 110.0

dihedral_coeff 1 0.30114722 1 3
dihedral_coeff 2 1.414914 1 3
dihedral_coeff 3 0.0 1 1

dump mydmp all atom 10 dump.lammpstrj
thermo 1

minimize 1.0e-4 1.0e-6 100 1000
PPPM initialization ...
  G vector (1/distance) = 0.20103223
  grid = 8 8 8
  stencil order = 5
  estimated absolute RMS force accuracy = 0.001013323
  estimated relative force accuracy = 3.051592e-06
  3d grid and FFT values/proc = 2197 512
Generated 21 of 21 mixed pair_coeff terms from geometric mixing rule
Step          Temp          E_pair         E_mol          TotEng         Press
0   0              2.3219437e+11  15.358623      2.3219437e+11  4.6068314e+12
Loop time of 0.037853 on 1 procs for 100 steps with 66 atoms

Minimization stats:
  Stopping criterion = max iterations
  Energy initial, next-to-last, final =
  Force two-norm initial, final = 1.0847779e+13 14.754534
  Force max component initial, final = 6.3199603e+12 5.5540046
  Final line search alpha, max atom move = 0.0076059356 0.042243402
  Iterations, force evaluations = 100 162

undump mydmp
reset_timestep 0

fix mynve all nve
fix myber all temp/berendsen 300 300 100

dump mydmp all atom 1000 dump.lammpstrj
dump_modify mydmp append yes
thermo 1000

variable mytemp equal temp
fix myat1 all ave/time 10 10 100 v_mytemp file output-temperature.dat

timestep 1.0
run 10000
PPPM initialization ...
  G vector (1/distance) = 0.20103223
  grid = 8 8 8
  stencil order = 5
  estimated absolute RMS force accuracy = 0.001013323
  estimated relative force accuracy = 3.051592e-06
  3d grid and FFT values/proc = 2197 512
Generated 21 of 21 mixed pair_coeff terms from geometric mixing rule
Step          Temp          E_pair         E_mol          TotEng         Press
0   0              2.0643115      8.8658547      10.930166      167.08879
Averages over the last 6 of 11 rows, steps 5000 to 10000:
Temp E_pair E_mol TotEng Press
297.443 2.82653 56.1605 116.617 49.8008
Loop time of 0.91478 on 1 procs for 10000 steps with 66 atoms

write_data PEG.data
System init for write_data ...
PPPM initialization ...
  G vector (1/distance) = 0.20103223
  grid = 8 8 8
  stencil order = 5
  estimated absolute RMS force accuracy = 0.001013323
  estimated relative force accuracy = 3.051592e-06
  3d grid and FFT values/proc = 2197 512
Generated 21 of 21 mixed pair_coeff terms from geometric mixing rule
