LAMMPS (2 Aug 2023)

# pull on the two ends of a PEG molecular
#

variable f0 equal 5 # kcal/mol/A = 67.2 pN

units real
atom_style  full
bond_style harmonic
angle_style     harmonic
dihedral_style  harmonic
pair_style      lj/cut/coul/long 12
kspace_style    pppm 1e-5
special_bonds   lj 0.0 0.0 0.5 coul 0.0 0.0 1.0 angle yes dihedral yes

read_data ../mergePEGH2O/mix.data
Reading data file ...
  orthogonal box = (-11.680864 -12.058841 -12.058841) to (59.916229 12.058841 12.058841)
  reading atoms ...
  3126 atoms
  reading velocities ...
  3126 velocities
  scanning bonds ...
  scanning angles ...
  scanning dihedrals ...
  reading bonds ...
  2105 bonds
  reading angles ...
  1138 angles
  reading dihedrals ...
  135 dihedrals
Finding 1-2 1-3 1-4 neighbors ...
     4 = max # of 1-2 neighbors
     6 = max # of 1-3 neighbors
    12 = max # of 1-4 neighbors
    14 = max # of special neighbors
include ../PARM.lammps
mass 1 15.9994 # H2O O
mass 2 1.008 # H2O H
mass 3 12.011 # CC32A
mass 4 15.9994 # OC30A
mass 5 1.008 # HCA2
mass 6 15.9994 # OC311
mass 7 1.008 # HCP1

pair_coeff 1 1 0.119431704 3.400251
pair_coeff 2 2 0.0 0.0
pair_coeff 3 3 0.25265643 2.8491607
pair_coeff 4 4 0.06630155 3.5811794
pair_coeff 5 5 0.028293679 2.373408
pair_coeff 6 6 0.0 0.0
pair_coeff 7 7 0.11949714 3.1000042

bond_coeff 1 442.1606 0.972
bond_coeff 2 1109.2926 1.12
bond_coeff 3 399.79163 1.43
bond_coeff 4 400.0343 1.53
bond_coeff 5 179.2543 0.971
bond_coeff 6 155.35373 1.42

angle_coeff 1 47.555878 103.0
angle_coeff 2 30.173132 109.5
angle_coeff 3 47.69405 109.5
angle_coeff 4 55.113907 111.0
angle_coeff 5 65.47197 111.3
angle_coeff 6 54.993103 110.3
angle_coeff 7 55.0234 111.4
angle_coeff 8 180.46019 109.0
angle_coeff 9 30.173132 110.0

dihedral_coeff 1 0.30114722 1 3
dihedral_coeff 2 1.414914 1 3
dihedral_coeff 3 0.0 1 1

group   H2O type 1 2
3060 atoms in group H2O
group   PEG type 3 4 5 6 7
66 atoms in group PEG

group   topull type 6
2 atoms in group topull
write_dump  topull atom topull.lammpstrj
run 0
PPPM initialization ...
  G vector (1/distance) = 0.24976186
  grid = 40 18 18
  stencil order = 5
  estimated absolute RMS force accuracy = 0.0031160485
  estimated relative force accuracy = 9.3838874e-06
  3d grid and FFT values/proc = 6800 2160
Generated 21 of 21 mixed pair_coeff terms from geometric mixing rule
Step          Temp          E_pair         E_mol          TotEng         Press
0   307.26976     -7841.3029      1380.0981     -3598.9773      167.10559
Loop time of 3.2915e-06 on 8 procs for 0 steps with 3126 atoms

group   topull1 id  3216
1 atoms in group topull1
group   topull2 id  3151
1 atoms in group topull2

dump    mydmp all atom 1000 dump.lammpstrj

timestep 1.0
fix mynvt all nvt temp 300 300 100

variable mytemp equal temp

fix myat1 all ave/time 10 10 100 v_mytemp file output-temperature.dat

variable x1 equal xcm(topull1,x)
variable x2 equal xcm(topull2,x)
variable y1 equal xcm(topull1,y)
variable y2 equal xcm(topull2,y)
variable z1 equal xcm(topull1,z)
variable z2 equal xcm(topull2,z)

variable delta_r equal "sqrt((v_x1-v_x2)^2 + (v_y1-v_y2)^2 + (v_z1-v_z2)^2)"

fix myat2 all ave/time 10 10 100 v_delta_r  file output-end-to-end-distance.dat

thermo 1000

run 30000
PPPM initialization ...
  G vector (1/distance) = 0.24976186
  grid = 40 18 18
  stencil order = 5
  estimated absolute RMS force accuracy = 0.0031160485
  estimated relative force accuracy = 9.3838874e-06
  3d grid and FFT values/proc = 6800 2160
Generated 21 of 21 mixed pair_coeff terms from geometric mixing rule
Step          Temp          E_pair         E_mol          TotEng         Press
0   307.26976     -7841.3029      1380.0981     -3598.9773      167.10559
Averages over the last 16 of 31 rows, steps 15000 to 30000:
Temp E_pair E_mol TotEng Press
299.996 -7779.37 1405.08 -3579.82 335.349
Loop time of 678.753 on 8 procs for 30000 steps with 3126 atoms

fix myaf1 topull1 addforce 5 0 0
fix myaf2 topull2 addforce -5 0 0
run 30000
PPPM initialization ...
  G vector (1/distance) = 0.24976186
  grid = 40 18 18
  stencil order = 5
  estimated absolute RMS force accuracy = 0.0031160485
  estimated relative force accuracy = 9.3838874e-06
  3d grid and FFT values/proc = 6800 2160
Generated 21 of 21 mixed pair_coeff terms from geometric mixing rule
Step          Temp          E_pair         E_mol          TotEng         Press
30000   304.40677     -7875.4217      1440.8575     -3599.0055     -643.32123
Averages over the last 16 of 31 rows, steps 45000 to 60000:
Temp E_pair E_mol TotEng Press
301.357 -7795.12 1420.61 -3567.36 135.256
Loop time of 689.507 on 8 procs for 30000 steps with 3126 atoms
