LAMMPS (29 Oct 2020)
# 2d micelle simulation

dimension	2

neighbor	0.3 bin
neigh_modify	delay 5

atom_style	bond

# Soft potential push-off

read_data	data.micelle
Reading data file ...
  orthogonal box = (0.0000000 0.0000000 -0.1) to (35.856860 35.856860 0.1)
  reading atoms ...
  1200 atoms
  scanning bonds ...
  reading bonds ...
  300 bonds
Finding 1-2 1-3 1-4 neighbors ...
     2 = max # of 1-2 neighbors
     1 = max # of 1-3 neighbors
     1 = max # of 1-4 neighbors
     2 = max # of special neighbors
special_bonds	fene
Finding 1-2 1-3 1-4 neighbors ...
     2 = max # of 1-2 neighbors
     2 = max # of special neighbors

pair_style	soft 1.12246
pair_coeff	* * 0.0 1.12246

bond_style 	harmonic
bond_coeff	1 50.0 0.75

velocity	all create 0.45 2349852

variable	prefactor equal ramp(1.0,20.0)

fix		1 all nve
fix		2 all temp/rescale 100 0.45 0.45 0.02 1.0
fix		3 all adapt 1 pair soft a * * v_prefactor
fix		4 all enforce2d

thermo		50
run		1000
  update every 1 steps, delay 5 steps, check yes
Step Temp E_pair E_mol TotEng Press
0         0.45   0.40003481 2.2200223e-06   0.84966203   0.78952518
Averages over the last 11 of 21 rows, steps 500 to 1000:
Temp E_pair E_mol TotEng Press
0.482152 0.519869 0.0894584 1.09108 5.4066
Loop time of 0.086947 on 1 procs for 1000 steps with 1200 atoms

unfix		3

# Main run

pair_style	lj/cut 2.5

# solvent/head - full-size and long-range

pair_coeff	1 1 1.0 1.0 2.5
pair_coeff	2 2 1.0 1.0 2.5
pair_coeff	1 2 1.0 1.0 2.5

# tail/tail - size-averaged and long-range

pair_coeff	3 3 1.0 0.75 2.5
pair_coeff	4 4 1.0 0.50 2.5
pair_coeff	3 4 1.0 0.67 2.5

# solvent/tail - full-size and repulsive

pair_coeff	1 3 1.0 1.0 1.12246
pair_coeff	1 4 1.0 1.0 1.12246

# head/tail - size-averaged and repulsive

pair_coeff	2 3 1.0 0.88 1.12246
pair_coeff	2 4 1.0 0.75 1.12246

thermo		1000

dump		1 all atom 1000 dump.micelle

dump		2 all image 500 image.*.jpg type type zoom 1.6
dump_modify	2 pad 5 adiam 1 0.5 adiam 2 1.5 adiam 3 1.0 adiam 4 0.75

#dump		3 all movie 250 movie.mpg type type zoom 1.6
#dump_modify	3 pad 5 adiam 1 0.5 adiam 2 1.5 adiam 3 1.0 adiam 4 0.75

reset_timestep	0
run		50000
  update every 1 steps, delay 5 steps, check yes
Step Temp E_pair E_mol TotEng Press
0         0.45   -1.7056163   0.08808163   -1.1679097    3.9431686
Averages over the last 26 of 51 rows, steps 25000 to 50000:
Temp E_pair E_mol TotEng Press
0.448774 -2.1088 0.0624944 -1.59791 0.744937
Loop time of 6.80896 on 1 procs for 50000 steps with 1200 atoms
