LAMMPS (2 Aug 2023)
# Lammps tutorial 01
#
# //
# https://lammpstutorials.github.io/tutorials/01-SimpleMolecularSimulation.html
# //
#
# modified with some comments about LJ potential
# //
# https://zhuanlan.zhihu.com/p/507732683
# //
#
# 2023.11.30
# ////////////////////////////////////////////
# PART A - Energy MINIMIZATION
# 1) Initialization
units lj
dimension 3
atom_style atomic
pair_style lj/cut 2.5
boundary p p p

# 2) System definition
region simulation_box block -20 20 -20 20 -20 20
create_box 2 simulation_box
Created orthogonal box = (-20 -20 -20) to (20 20 20)
create_atoms 1 random 1500 341341 simulation_box
Created 1500 atoms
create_atoms 2 random 100 127569 simulation_box
Created 100 atoms

# 3) Simulation settings
mass 1 1
mass 2 1
pair_coeff 1 1 1.0 1.0
pair_coeff 2 2 0.5 3.0

# 4) Visualization
thermo 10

# 5) Run
minimize 1.0e-4 1.0e-6 1000 10000
Generated 1 of 1 mixed pair_coeff terms from geometric mixing rule
Step          Temp          E_pair         E_mol          TotEng         Press
0   0              78840982       0              78840982       7884122
Loop time of 0.0833718 on 1 procs for 388 steps with 1600 atoms

Minimization stats:
  Stopping criterion = energy tolerance
  Energy initial, next-to-last, final =
  Force two-norm initial, final = 1.6033542e+13 8.4209032
  Force max component initial, final = 1.0518609e+13 3.0313935
  Final line search alpha, max atom move = 0.00078464023 0.0023785533
  Iterations, force evaluations = 388 786

# PART B - MOLECULAR DYNAMICS
# 3) Simulation settings
group mytype1 type 1
1500 atoms in group mytype1
group mytype2 type 2
100 atoms in group mytype2

# 4) Visualization
thermo 1000
thermo_style custom step temp pe ke etotal press

compute coor12 mytype1 coord/atom cutoff 2.0 group mytype2
compute sumcoor12 all reduce ave c_coor12
fix myat3 all ave/time 10 200 2000 c_sumcoor12 file coordinationnumber12.dat

variable kinetic_energy equal ke
variable potential_energy equal pe
variable pressure equal press

#fix myat1 all ave/time 10 1 10 ke pe press file energy_new.dat (Error)
#fix myat1 all ave/time 10 1 10 v_kinetic_energy v_potential_energy v_pressure file energy.dat
#fix myat1 all ave/time  2 5 10 v_kinetic_energy v_potential_energy v_pressure file energy_new.dat
# for visualization
#dump mydmp all atom 1000 dump.lammpstrj

# 5) Run
velocity all create 1.0 4928345 mom yes rot yes dist gaussian
fix mynve all nve
fix mylgv all langevin 1.0 1.0 0.1 1530917
timestep 0.005
run 300000
Generated 1 of 1 mixed pair_coeff terms from geometric mixing rule
Step          Temp          PotEng         KinEng         TotEng         Press
388   1             -0.95358725     1.4990625      0.54547525     0.024671816
Averages over the last 151 of 302 rows, steps 151000 to 300388:
Temp PotEng KinEng TotEng Press
1.00248 -0.228291 1.50278 1.27449 0.0232482
Loop time of 35.9113 on 1 procs for 300000 steps with 1600 atoms
