LAMMPS (29 Oct 2020)
# Initialization
units metal
boundary p p p
atom_style full
neighbor 1.0 bin
neigh_modify delay 1

# System definition
read_data ../SilicaBlock/data.amorphousSiO
Reading data file ...
  orthogonal box = (1.6813299 -3.5304513 2.2504521) to (18.904248 24.116029 18.335126)
  reading atoms ...
  576 atoms
  reading velocities ...
  576 velocities
Finding 1-2 1-3 1-4 neighbors ...
     0 = max # of 1-2 neighbors
     0 = max # of 1-3 neighbors
     0 = max # of 1-4 neighbors
     1 = max # of special neighbors

# Simulation settings
pair_style vashishta
pair_coeff * * ../SilicaBlock/SiO.1990.vashishta.txt Si O
Reading vashishta potential file ../SilicaBlock/SiO.1990.vashishta.txt with DATE: 2015-10-14
dump dmp all atom 1000 dump.lammpstrj

# Run
fix nvt1 all nvt temp 300 300 0.1
timestep 0.001
thermo 1000
variable var loop 35
label loop
change_box all z scale 1.005 remap
Changing box ...
  orthogonal box = (1.6813299 -3.5304513 2.2102404) to (18.904248 24.116029 18.375337)
run 2000
  update every 1 steps, delay 1 steps, check yes
Step Temp E_pair E_mol TotEng Press
0    304.90096   -5177.0654            0   -5154.4038   -17324.162
Loop time of 11.2892 on 1 procs for 2000 steps with 576 atoms

next var
jump input.lammps loop
change_box all z scale 1.005 remap
Changing box ...
  orthogonal box = (1.6813299 -3.5304513 2.1698277) to (18.904248 24.116029 18.415750)
run 2000
Step Temp E_pair E_mol TotEng Press
2000     292.2935   -5175.8753            0   -5154.1508   -16197.296
Loop time of 11.2837 on 1 procs for 2000 steps with 576 atoms

next var
jump input.lammps loop
change_box all z scale 1.005 remap
Changing box ...
  orthogonal box = (1.6813299 -3.5304513 2.1292128) to (18.904248 24.116029 18.456365)
run 2000
Step Temp E_pair E_mol TotEng Press
4000    298.23172   -5176.1842            0   -5154.0183   -25477.557
Loop time of 11.1822 on 1 procs for 2000 steps with 576 atoms

next var
jump input.lammps loop
change_box all z scale 1.005 remap
Changing box ...
  orthogonal box = (1.6813299 -3.5304513 2.0883950) to (18.904248 24.116029 18.497183)
run 2000
Step Temp E_pair E_mol TotEng Press
6000    294.24788    -5174.898            0   -5153.0281   -28815.709
Loop time of 11.1354 on 1 procs for 2000 steps with 576 atoms

next var
jump input.lammps loop
change_box all z scale 1.005 remap
Changing box ...
  orthogonal box = (1.6813299 -3.5304513 2.0473730) to (18.904248 24.116029 18.538205)
run 2000
Step Temp E_pair E_mol TotEng Press
8000    287.43586   -5173.7103            0   -5152.3468   -36107.575
Loop time of 11.0985 on 1 procs for 2000 steps with 576 atoms

next var
jump input.lammps loop
change_box all z scale 1.005 remap
Changing box ...
  orthogonal box = (1.6813299 -3.5304513 2.0061459) to (18.904248 24.116029 18.579432)
run 2000
Step Temp E_pair E_mol TotEng Press
10000    332.34657    -5173.172            0   -5148.4705   -32349.859
Loop time of 11.0564 on 1 procs for 2000 steps with 576 atoms

next var
jump input.lammps loop
change_box all z scale 1.005 remap
Changing box ...
  orthogonal box = (1.6813299 -3.5304513 1.9647127) to (18.904248 24.116029 18.620865)
run 2000
Step Temp E_pair E_mol TotEng Press
12000    318.64297   -5172.4814            0   -5148.7984   -33107.177
Loop time of 10.9708 on 1 procs for 2000 steps with 576 atoms

next var
jump input.lammps loop
change_box all z scale 1.005 remap
Changing box ...
  orthogonal box = (1.6813299 -3.5304513 1.9230723) to (18.904248 24.116029 18.662505)
run 2000
Step Temp E_pair E_mol TotEng Press
14000     287.7872   -5169.3024            0   -5147.9127   -41794.454
Loop time of 10.8995 on 1 procs for 2000 steps with 576 atoms

next var
jump input.lammps loop
change_box all z scale 1.005 remap
Changing box ...
  orthogonal box = (1.6813299 -3.5304513 1.8812237) to (18.904248 24.116029 18.704354)
run 2000
Step Temp E_pair E_mol TotEng Press
16000    291.81428   -5168.7182            0   -5147.0293   -36422.664
Loop time of 10.8535 on 1 procs for 2000 steps with 576 atoms

next var
jump input.lammps loop
change_box all z scale 1.005 remap
Changing box ...
  orthogonal box = (1.6813299 -3.5304513 1.8391659) to (18.904248 24.116029 18.746412)
run 2000
Step Temp E_pair E_mol TotEng Press
18000    285.02905   -5166.3023            0   -5145.1176   -43587.979
Loop time of 10.8299 on 1 procs for 2000 steps with 576 atoms

next var
jump input.lammps loop
change_box all z scale 1.005 remap
Changing box ...
  orthogonal box = (1.6813299 -3.5304513 1.7968978) to (18.904248 24.116029 18.788680)
run 2000
Step Temp E_pair E_mol TotEng Press
20000    300.25294   -5163.1427            0   -5140.8265   -50909.625
Loop time of 10.7485 on 1 procs for 2000 steps with 576 atoms

next var
jump input.lammps loop
change_box all z scale 1.005 remap
Changing box ...
  orthogonal box = (1.6813299 -3.5304513 1.7544183) to (18.904248 24.116029 18.831159)
run 2000
Step Temp E_pair E_mol TotEng Press
22000    324.39985   -5160.6724            0   -5136.5615   -56884.612
Loop time of 10.6867 on 1 procs for 2000 steps with 576 atoms

next var
jump input.lammps loop
change_box all z scale 1.005 remap
Changing box ...
  orthogonal box = (1.6813299 -3.5304513 1.7117265) to (18.904248 24.116029 18.873851)
run 2000
Step Temp E_pair E_mol TotEng Press
24000    295.70278   -5158.7687            0   -5136.7907   -56580.182
Loop time of 10.6615 on 1 procs for 2000 steps with 576 atoms

next var
jump input.lammps loop
change_box all z scale 1.005 remap
Changing box ...
  orthogonal box = (1.6813299 -3.5304513 1.6688212) to (18.904248 24.116029 18.916757)
run 2000
Step Temp E_pair E_mol TotEng Press
26000    303.60822   -5155.6621            0   -5133.0965   -63907.001
Loop time of 10.6048 on 1 procs for 2000 steps with 576 atoms

next var
jump input.lammps loop
change_box all z scale 1.005 remap
Changing box ...
  orthogonal box = (1.6813299 -3.5304513 1.6257013) to (18.904248 24.116029 18.959876)
run 2000
Step Temp E_pair E_mol TotEng Press
28000    304.66935   -5152.9321            0   -5130.2877   -72003.133
Loop time of 10.5663 on 1 procs for 2000 steps with 576 atoms

next var
jump input.lammps loop
change_box all z scale 1.005 remap
Changing box ...
  orthogonal box = (1.6813299 -3.5304513 1.5823659) to (18.904248 24.116029 19.003212)
run 2000
Step Temp E_pair E_mol TotEng Press
30000    296.17372   -5149.7826            0   -5127.7696   -66280.662
Loop time of 10.4913 on 1 procs for 2000 steps with 576 atoms

next var
jump input.lammps loop
change_box all z scale 1.005 remap
Changing box ...
  orthogonal box = (1.6813299 -3.5304513 1.5388138) to (18.904248 24.116029 19.046764)
run 2000
Step Temp E_pair E_mol TotEng Press
32000    305.31309   -5146.6358            0   -5123.9436    -73359.23
Loop time of 10.4333 on 1 procs for 2000 steps with 576 atoms

next var
jump input.lammps loop
change_box all z scale 1.005 remap
Changing box ...
  orthogonal box = (1.6813299 -3.5304513 1.4950439) to (18.904248 24.116029 19.090534)
run 2000
Step Temp E_pair E_mol TotEng Press
34000    276.69335   -5143.7466            0   -5123.1815   -76881.965
Loop time of 10.4078 on 1 procs for 2000 steps with 576 atoms

next var
jump input.lammps loop
change_box all z scale 1.005 remap
Changing box ...
  orthogonal box = (1.6813299 -3.5304513 1.4510552) to (18.904248 24.116029 19.134523)
run 2000
Step Temp E_pair E_mol TotEng Press
36000    299.57947   -5140.6514            0   -5118.3853   -77811.483
Loop time of 10.3343 on 1 procs for 2000 steps with 576 atoms

next var
jump input.lammps loop
change_box all z scale 1.005 remap
Changing box ...
  orthogonal box = (1.6813299 -3.5304513 1.4068465) to (18.904248 24.116029 19.178731)
run 2000
Step Temp E_pair E_mol TotEng Press
38000    289.61119   -5136.5457            0   -5115.0204   -70269.976
Loop time of 10.2858 on 1 procs for 2000 steps with 576 atoms

next var
jump input.lammps loop
change_box all z scale 1.005 remap
Changing box ...
  orthogonal box = (1.6813299 -3.5304513 1.3624168) to (18.904248 24.116029 19.223161)
run 2000
Step Temp E_pair E_mol TotEng Press
40000    307.19454    -5133.919            0   -5111.0869   -77726.838
Loop time of 10.2355 on 1 procs for 2000 steps with 576 atoms

next var
jump input.lammps loop
change_box all z scale 1.005 remap
Changing box ...
  orthogonal box = (1.6813299 -3.5304513 1.3177650) to (18.904248 24.116029 19.267813)
run 2000
Step Temp E_pair E_mol TotEng Press
42000    306.83773   -5130.1165            0    -5107.311   -80811.014
Loop time of 10.1901 on 1 procs for 2000 steps with 576 atoms

next var
jump input.lammps loop
change_box all z scale 1.005 remap
Changing box ...
  orthogonal box = (1.6813299 -3.5304513 1.2728898) to (18.904248 24.116029 19.312688)
run 2000
Step Temp E_pair E_mol TotEng Press
44000    302.47713   -5126.5021            0   -5104.0206   -79532.494
Loop time of 10.1636 on 1 procs for 2000 steps with 576 atoms

next var
jump input.lammps loop
change_box all z scale 1.005 remap
Changing box ...
  orthogonal box = (1.6813299 -3.5304513 1.2277903) to (18.904248 24.116029 19.357787)
run 2000
Step Temp E_pair E_mol TotEng Press
46000    303.60681   -5124.7429            0   -5102.1774   -79864.676
Loop time of 10.093 on 1 procs for 2000 steps with 576 atoms

next var
jump input.lammps loop
change_box all z scale 1.005 remap
Changing box ...
  orthogonal box = (1.6813299 -3.5304513 1.1824653) to (18.904248 24.116029 19.403112)
run 2000
Step Temp E_pair E_mol TotEng Press
48000    288.61894   -5123.1859            0   -5101.7345   -87664.979
Loop time of 10.0412 on 1 procs for 2000 steps with 576 atoms

next var
jump input.lammps loop
change_box all z scale 1.005 remap
Changing box ...
  orthogonal box = (1.6813299 -3.5304513 1.1369137) to (18.904248 24.116029 19.448664)
run 2000
Step Temp E_pair E_mol TotEng Press
50000     300.8553   -5119.8484            0   -5097.4875   -86222.192
Loop time of 10.0012 on 1 procs for 2000 steps with 576 atoms

next var
jump input.lammps loop
change_box all z scale 1.005 remap
Changing box ...
  orthogonal box = (1.6813299 -3.5304513 1.0911344) to (18.904248 24.116029 19.494443)
run 2000
Step Temp E_pair E_mol TotEng Press
52000    307.02491    -5118.257            0   -5095.4375   -83077.655
Loop time of 9.95078 on 1 procs for 2000 steps with 576 atoms

next var
jump input.lammps loop
change_box all z scale 1.005 remap
Changing box ...
  orthogonal box = (1.6813299 -3.5304513 1.0451261) to (18.904248 24.116029 19.540452)
run 2000
Step Temp E_pair E_mol TotEng Press
54000    290.74015    -5114.289            0   -5092.6798   -85710.864
Loop time of 9.89389 on 1 procs for 2000 steps with 576 atoms

next var
jump input.lammps loop
change_box all z scale 1.005 remap
Changing box ...
  orthogonal box = (1.6813299 -3.5304513 0.99888777) to (18.904248 24.116029 19.586690)
run 2000
Step Temp E_pair E_mol TotEng Press
56000    305.05395   -5110.7482            0   -5088.0752    -84596.12
Loop time of 9.86785 on 1 procs for 2000 steps with 576 atoms

next var
jump input.lammps loop
change_box all z scale 1.005 remap
Changing box ...
  orthogonal box = (1.6813299 -3.5304513 0.95241826) to (18.904248 24.116029 19.633159)
run 2000
Step Temp E_pair E_mol TotEng Press
58000    286.67573   -5109.8157            0   -5088.5086   -79442.437
Loop time of 9.81675 on 1 procs for 2000 steps with 576 atoms

next var
jump input.lammps loop
change_box all z scale 1.005 remap
Changing box ...
  orthogonal box = (1.6813299 -3.5304513 0.90571641) to (18.904248 24.116029 19.679861)
run 2000
Step Temp E_pair E_mol TotEng Press
60000    292.66745   -5105.4055            0   -5083.6531   -86479.292
Loop time of 9.78078 on 1 procs for 2000 steps with 576 atoms

next var
jump input.lammps loop
change_box all z scale 1.005 remap
Changing box ...
  orthogonal box = (1.6813299 -3.5304513 0.85878104) to (18.904248 24.116029 19.726797)
run 2000
Step Temp E_pair E_mol TotEng Press
62000    294.82658   -5103.9489            0    -5082.036   -81884.516
Loop time of 9.74273 on 1 procs for 2000 steps with 576 atoms

next var
jump input.lammps loop
change_box all z scale 1.005 remap
Changing box ...
  orthogonal box = (1.6813299 -3.5304513 0.81161101) to (18.904248 24.116029 19.773967)
run 2000
Step Temp E_pair E_mol TotEng Press
64000    306.88551   -5100.5837            0   -5077.7745   -74227.815
Loop time of 9.68809 on 1 procs for 2000 steps with 576 atoms

next var
jump input.lammps loop
change_box all z scale 1.005 remap
Changing box ...
  orthogonal box = (1.6813299 -3.5304513 0.76420512) to (18.904248 24.116029 19.821373)
run 2000
Step Temp E_pair E_mol TotEng Press
66000    305.53398   -5097.2626            0   -5074.5539   -74656.363
Loop time of 9.64794 on 1 procs for 2000 steps with 576 atoms

next var
jump input.lammps loop
change_box all z scale 1.005 remap
Changing box ...
  orthogonal box = (1.6813299 -3.5304513 0.7165622) to (18.904248 24.116029 19.869016)
run 2000
Step Temp E_pair E_mol TotEng Press
68000    297.97486   -5095.3942            0   -5073.2473   -75184.345
Loop time of 9.62099 on 1 procs for 2000 steps with 576 atoms

next var
jump input.lammps loop
run 20000
Step Temp E_pair E_mol TotEng Press
70000    304.56216   -5095.2489            0   -5072.6125   -73075.871
Averages over the last 11 of 21 rows, steps 80000 to 90000:
Temp E_pair E_mol TotEng Press
300.416 -5099.02 0 -5076.7 -64599.5
Loop time of 96.0254 on 1 procs for 20000 steps with 576 atoms

write_data data.dilatedSiO
System init for write_data ...
