LAMMPS (29 Oct 2020)
# System equilibration

## Initialization

boundary s p p
pair_style lj/cut 2.5
read_data ../SystemCreation/data.lammps
Reading data file ...
  orthogonal box = (-33.321069 -7.9370053 -7.9370053) to (33.321069 7.9370053 7.9370053)
  reading atoms ...
  3000 atoms
  reading velocities ...
  3000 velocities

## Region and groups
region right block 0 INF INF INF INF INF

# // Then, let us group the atoms into groups,
# // which will allow us to control them separately
group solid type 1 2 3
1400 atoms in group solid
group piston_left type 1
600 atoms in group piston_left
group membrane type 2
200 atoms in group membrane
group piston_right type 3
600 atoms in group piston_right
group fluid type 4 5
1600 atoms in group fluid
group solvent type 4
1550 atoms in group solvent
group solute type 5
50 atoms in group solute

## Small optimization
# // Since we anticipate that the atoms of the solid will be frozen,
# // we can ask LAMMPS to not build neighbor lists between the solid atoms
# // (and save computational power):
neigh_modify exclude group solid solid

neigh_modify every 1 delay 5 check yes

## Dynamics

velocity fluid create 1.0 4928459 mom yes rot yes dist gaussian

fix mynve all nve

compute temperature_fluid fluid temp
fix mylgv fluid langevin 1.0 1.0 0.1 1530917 zero yes
fix_modify mylgv temp temperature_fluid

fix mysf1 membrane setforce 0 0 0

fix mysf2 piston_left setforce NULL 0 0
fix mysf3 piston_right setforce NULL 0 0
variable F equal 0.025
fix myaf1 piston_left aveforce 0.025 NULL NULL
fix myaf2 piston_right aveforce -0.025 NULL NULL

## Outputs
variable solvent_right equal count(solvent,right)
variable solute_right equal count(solute,right)
variable position_piston_left equal xcm(piston_left,x)
variable position_piston_right equal xcm(piston_right,x)

fix myat1 all ave/time 1000 1 1000 v_solvent_right file solvent_right.dat
fix myat2 all ave/time 1000 1 1000 v_solute_right file solute_right.dat
fix myat3 all ave/time 1000 1 1000 v_position_piston_left file position_piston_left.dat
fix myat4 all ave/time 1000 1 1000 v_position_piston_right file position_piston_right.dat

dump mydmp all atom 1000 dump.lammpstrj
thermo_modify temp temperature_fluid

## Run
thermo 10000
run 500000
  update every 1 steps, delay 5 steps, check yes
Step Temp E_pair E_mol TotEng Press Volume
0            1  -0.63192924            0   0.16757076  0.017485892    16792.445
Averages over the last 26 of 51 rows, steps 250000 to 500000:
Temp E_pair E_mol TotEng Press Volume
0.997695 -1.12192 0 -0.324266 0.0360389 14187.3
Loop time of 257.28 on 1 procs for 500000 steps with 3000 atoms

write_data data.lammps pair ij
System init for write_data ...
