LAMMPS (2 Aug 2023)
# Tutorials
# 2: polymer in water
# 2.1: H2O

units       real
atom_style  full
bond_style  harmonic
angle_style harmonic
dihedral_style  harmonic
pair_style      lj/cut/coul/long 12
kspace_style    pppm 1e-5
special_bonds   lj 0.0 0.0 0.5 coul 0.0 0.0 1.0 angle yes

region box block -15 15 -15 15 -15 15
create_box 7 box bond/types 6 angle/types 9 dihedral/types 3 extra/bond/per/atom 2 extra/angle/per/atom 1 extra/special/per/atom 2
Created orthogonal box = (-15 -15 -15) to (15 15 15)

include ../PARM.lammps
mass 1 15.9994 # H2O O
mass 2 1.008 # H2O H
mass 3 12.011 # CC32A
mass 4 15.9994 # OC30A
mass 5 1.008 # HCA2
mass 6 15.9994 # OC311
mass 7 1.008 # HCP1

pair_coeff 1 1 0.119431704 3.400251
pair_coeff 2 2 0.0 0.0
pair_coeff 3 3 0.25265643 2.8491607
pair_coeff 4 4 0.06630155 3.5811794
pair_coeff 5 5 0.028293679 2.373408
pair_coeff 6 6 0.0 0.0
pair_coeff 7 7 0.11949714 3.1000042

bond_coeff 1 442.1606 0.972
bond_coeff 2 1109.2926 1.12
bond_coeff 3 399.79163 1.43
bond_coeff 4 400.0343 1.53
bond_coeff 5 179.2543 0.971
bond_coeff 6 155.35373 1.42

angle_coeff 1 47.555878 103.0
angle_coeff 2 30.173132 109.5
angle_coeff 3 47.69405 109.5
angle_coeff 4 55.113907 111.0
angle_coeff 5 65.47197 111.3
angle_coeff 6 54.993103 110.3
angle_coeff 7 55.0234 111.4
angle_coeff 8 180.46019 109.0
angle_coeff 9 30.173132 110.0

dihedral_coeff 1 0.30114722 1 3
dihedral_coeff 2 1.414914 1 3
dihedral_coeff 3 0.0 1 1

molecule h2omol FlexibleH2O.txt
Read molecule template h2omol:
  1 molecules
  0 fragments
  3 atoms with max type 2
  2 bonds with max type 1
  1 angles with max type 1
  0 dihedrals with max type 0
  0 impropers with max type 0
create_atoms 0 random 350 456415 NULL mol h2omol 454756 overlap 1.0 maxtry 50
Created 1050 atoms

group H2O type 1 2
1050 atoms in group H2O
minimize 1.0e-4 1.0e-6 100 1000
PPPM initialization ...
  G vector (1/distance) = 0.24900018
  grid = 20 20 20
  stencil order = 5
  estimated absolute RMS force accuracy = 0.0024186408
  estimated relative force accuracy = 7.2836648e-06
  3d grid and FFT values/proc = 19683 8000
Generated 21 of 21 mixed pair_coeff terms from geometric mixing rule
Step          Temp          E_pair         E_mol          TotEng         Press
0   0              21524.605      79.633604      21604.238      231976.76
Loop time of 0.625551 on 1 procs for 100 steps with 1050 atoms

Minimization stats:
  Stopping criterion = max iterations
  Energy initial, next-to-last, final =
  Force two-norm initial, final = 83621.976 70.494139
  Force max component initial, final = 41139.633 12.984993
  Final line search alpha, max atom move = 0.005737157 0.074496942
  Iterations, force evaluations = 100 171

reset_timestep 0

fix mynpt all npt temp 300 300 100 iso 1 1 1000

dump mydmp all atom 1000 dump.lammpstrj

variable mytemp equal temp
variable myvol equal vol
fix myat1 all ave/time 10 10 100 v_mytemp file temperature.dat
fix myat2 all ave/time 10 10 100 v_myvol file volume.dat
variable myoxy equal count(H2O)/3 # divide by 3 to get the number of molecule, not atom
variable mydensity equal 350/v_myvol
fix myat3 all ave/time 10 10 100 v_mydensity file density.dat
thermo 1000

timestep 1.0
run 50000
PPPM initialization ...
  G vector (1/distance) = 0.24900018
  grid = 20 20 20
  stencil order = 5
  estimated absolute RMS force accuracy = 0.0024186408
  estimated relative force accuracy = 7.2836648e-06
  3d grid and FFT values/proc = 19683 8000
Generated 21 of 21 mixed pair_coeff terms from geometric mixing rule
Step          Temp          E_pair         E_mol          TotEng         Press          Volume
0   0             -2681.2298      138.18337     -2543.0465     -1702.5533      27000
Averages over the last 26 of 51 rows, steps 25000 to 50000:
Temp E_pair E_mol TotEng Press Volume
300.309 -2581.75 415.952 -1226.77 300.468 14642.3
Loop time of 248.926 on 1 procs for 50000 steps with 1050 atoms
