LAMMPS (29 Oct 2020)
# Initialization
units metal
boundary p p p
atom_style full
pair_style vashishta
neighbor 1.0 bin
neigh_modify delay 1

# System definition
read_data Sio.data.txt
Reading data file ...
  orthogonal box = (0.0000000 0.0000000 0.0000000) to (5.1463944 5.1463944 5.1463944)
  reading atoms ...
  9 atoms
Finding 1-2 1-3 1-4 neighbors ...
     0 = max # of 1-2 neighbors
     0 = max # of 1-3 neighbors
     0 = max # of 1-4 neighbors
     1 = max # of special neighbors
replicate 4 4 4
Replicating atoms ...
  orthogonal box = (0.0000000 0.0000000 0.0000000) to (20.585578 20.585578 20.585578)
  576 atoms
Finding 1-2 1-3 1-4 neighbors ...
     0 = max # of 1-2 neighbors
     0 = max # of 1-3 neighbors
     0 = max # of 1-4 neighbors
     1 = max # of special neighbors
  replicate CPU = 0.002 seconds

# Simulation settings
pair_coeff * * SiO.1990.vashishta.txt Si O
Reading vashishta potential file SiO.1990.vashishta.txt with DATE: 2015-10-14
dump dmp all atom 5000 dump.lammpstrj

# Run
velocity all create 6000 4928459 rot yes dist gaussian
fix nvt1 all nvt temp 6000 6000 0.1
timestep 0.001
thermo 1000
run 5000
  update every 1 steps, delay 1 steps, check yes
Step Temp E_pair E_mol TotEng Press
0         6000   -2060.8001            0   -1614.8526    779045.54
Loop time of 30.305 on 1 procs for 5000 steps with 576 atoms

unfix nvt1
fix npt1 all npt temp 6000 4000 0.1 aniso 100 100 1
run 50000
Step Temp E_pair E_mol TotEng Press Volume
5000    6038.5315   -4444.8812            0   -3996.0698    49960.576    8723.4681
Averages over the last 26 of 51 rows, steps 30000 to 55000:
Temp E_pair E_mol TotEng Press Volume
4481.43 -4609.97 0 -4276.89 1666.12 9376.4
Loop time of 266.714 on 1 procs for 50000 steps with 576 atoms

fix npt1 all npt temp 4000 300 0.1 aniso 100 1 1
run 200000
Step Temp E_pair E_mol TotEng Press Volume
55000    4171.4099   -4695.7239            0   -4385.6856    2024.1975    9007.9259
Averages over the last 101 of 201 rows, steps 155000 to 255000:
Temp E_pair E_mol TotEng Press Volume
1226.29 -5101.68 0 -5010.54 -1237.02 7815.9
Loop time of 1299.38 on 1 procs for 200000 steps with 576 atoms

run 4000
Step Temp E_pair E_mol TotEng Press Volume
255000    301.56794   -5177.3261            0   -5154.9122   -3420.0412    7658.5827
Loop time of 23.1757 on 1 procs for 4000 steps with 576 atoms

write_data data.amorphousSiO
System init for write_data ...
