LAMMPS (29 Oct 2020)
# Initialization
units metal
boundary p p p
atom_style full
neighbor 1.0 bin
neigh_modify delay 1
pair_style hybrid/overlay vashishta lj/cut/tip4p/long 3 4 1 1 0.1546 10
kspace_style pppm/tip4p 1.0e-4
bond_style harmonic
angle_style harmonic

# System definition
read_data data.dilatedSiO
Reading data file ...
  orthogonal box = (1.6813299 -3.5304513 0.7165622) to (18.904248 24.116029 19.869016)
  reading atoms ...
  576 atoms
  reading velocities ...
  576 velocities
Finding 1-2 1-3 1-4 neighbors ...
     0 = max # of 1-2 neighbors
     0 = max # of 1-3 neighbors
     0 = max # of 1-4 neighbors
     3 = max # of special neighbors
molecule h2omol TIP4P2005.txt
Read molecule template h2omol:
  1 molecules
  3 atoms with max type 2
  2 bonds with max type 1
  1 angles with max type 1
  0 dihedrals with max type 0
  0 impropers with max type 0
create_atoms 0 single 19.5 10 10 mol h2omol 45585
Created 0 atoms
group SiO type 1 2
576 atoms in group SiO
group H2O type 3 4
0 atoms in group H2O

# Simulation settings
pair_coeff * * vashishta ../SilicaBlock/SiO.1990.vashishta.txt Si O NULL NULL
Reading vashishta potential file ../SilicaBlock/SiO.1990.vashishta.txt with DATE: 2015-10-14
pair_coeff * * lj/cut/tip4p/long 0 0
pair_coeff 1 3 lj/cut/tip4p/long 0.0057 4.42 # epsilongSi = 0.00403, sigmaSi = 3.69
pair_coeff 2 3 lj/cut/tip4p/long 0.0043 3.12 # epsilongO = 0.0023 , signmaO = 3.091
pair_coeff 3 3 lj/cut/tip4p/long 0.008 3.1589
pair_coeff 4 4 lj/cut/tip4p/long 0.0 0.0

bond_coeff 1 0 0.9572
angle_coeff 1 0 104.52
variable oxygen atom "type==3"
group oxygen dynamic all var oxygen
dynamic group oxygen defined
variable n0 equal count(oxygen)
fix myat1 all ave/time 100 10 1000 v_n0 file numbermolecule.dat
fix shak H2O shake 1.0e-4 200 0 b 1 a 1 mol h2omol
       0 = # of size 2 clusters
       0 = # of size 3 clusters
       0 = # of size 4 clusters
       0 = # of frozen angles
  find clusters CPU = 0.000 seconds
dump dmp all atom 2000 dump.lammpstrj

# Run
compute_modify thermo_temp dynamic yes
compute ctH2O H2O temp
compute_modify ctH2O dynamic yes
fix mynvt1 H2O nvt temp 300 300 0.1
fix_modify mynvt1 temp ctH2O
compute ctSiO SiO temp
fix mynvt2 SiO nvt temp 300 300 0.1
fix_modify mynvt2 temp ctSiO
timestep 0.001
thermo 1000
run 5000
PPPM initialization ...
  extracting TIP4P info from pair style
  G vector (1/distance) = 0.27677924
  grid = 12 15 12
  stencil order = 5
  estimated absolute RMS force accuracy = 0.00091629216
  estimated relative force accuracy = 6.3632969e-05
  3d grid and FFT values/proc = 5780 2160
  update every 1 steps, delay 1 steps, check yes
Step Temp E_pair E_mol TotEng Press
0    315.24895   -7351.5791            0   -7328.1484   -196269.47
Loop time of 35.3529 on 1 procs for 5000 steps with 576 atoms

variable tfac equal 5.0/3.0
fix fgcmc H2O gcmc 100 100 0 0 65899 300 -0.5 0.1 mol h2omol tfac_insert 1.66666666666667 group H2O shake shak full_energy
run 250000
PPPM initialization ...
  extracting TIP4P info from pair style
  G vector (1/distance) = 0.27677924
  grid = 12 15 12
  stencil order = 5
  estimated absolute RMS force accuracy = 0.00091629216
  estimated relative force accuracy = 6.3632969e-05
  3d grid and FFT values/proc = 5780 2160
0 atoms in group FixGCMC:gcmc_exclusion_group:fgcmc
0 atoms in group FixGCMC:rotation_gas_atoms:fgcmc
  update every 1 steps, delay 1 steps, check yes
Step Temp E_pair E_mol TotEng Press
5000    289.56807   -7381.8044            0   -7360.2824    -96137.48
Averages over the last 126 of 251 rows, steps 130000 to 255000:
Temp E_pair E_mol TotEng Press
300.135 -7384.68 0 -7362.37 -89895.8
Loop time of 4282.43 on 1 procs for 250000 steps with 576 atoms

write_data SiOwithwater.data
System init for write_data ...
PPPM initialization ...
  extracting TIP4P info from pair style
  G vector (1/distance) = 0.27677924
  grid = 12 15 12
  stencil order = 5
  estimated absolute RMS force accuracy = 0.00091629216
  estimated relative force accuracy = 6.3632969e-05
  3d grid and FFT values/proc = 5780 2160
0 atoms in group FixGCMC:rotation_gas_atoms:fgcmc
  update every 1 steps, delay 1 steps, check yes
