read_data       PE_nc10_cl1000.dat
Reading data file ...
  orthogonal box = (0 0 0) to (80.0586 80.0586 80.0586)
  reading atoms ...
  10000 atoms
  scanning bonds ...
  scanning angles ...
  scanning dihedrals ...
  reading bonds ...
  9990 bonds
  reading angles ...
  9980 angles
  reading dihedrals ...
  9970 dihedrals
Finding 1-2 1-3 1-4 neighbors ...
     2 = max # of 1-2 neighbors
     2 = max # of 1-3 neighbors
     4 = max # of 1-4 neighbors
     6 = max # of special neighbors

# Dreiding potential information
neighbor        0.4 bin
neigh_modify    every 10 one 10000
bond_style      harmonic
bond_coeff      1 350 1.53
angle_style     harmonic
angle_coeff     1 60 109.5
dihedral_style  multi/harmonic
dihedral_coeff  1 1.73 -4.49 0.776 6.99 0.0
pair_style      lj/cut 10.5
pair_coeff      1 1 0.112 4.01 10.5

# Equilibration Stage 1 (Langevin dynamics at 500 K)
velocity        all create 500.0 1231
fix             1 all nve/limit 0.05
fix             2 all langevin 500.0 500.0 10.0 904297
thermo_style    custom step temp press
thermo          100
timestep        1
run             10000
Generated 0 of 0 mixed pair_coeff terms from geometric mixing rule
  update every 10 steps, delay 10 steps, check yes
Step          Temp          Press
0   500            1.8475472e+08
Averages over the last 51 of 101 rows, steps 5000 to 10000:
Temp Press
501.401 2137.08
Loop time of 40.999 on 6 procs for 10000 steps with 10000 atoms

unfix           1
unfix           2
write_restart   restart.PE_nc10_cl1000.dreiding1
System init for write_restart ...
Generated 0 of 0 mixed pair_coeff terms from geometric mixing rule

# Equilibration Stage 2 (NPT dynamics at 500 K)
fix             1 all npt temp 500.0 500.0 50 iso 0 0 1000 drag 2
fix             2 all momentum 1 linear 1 1 1
thermo_style    custom step temp press
thermo          100
timestep        0.5
reset_timestep  0
run             50000
Generated 0 of 0 mixed pair_coeff terms from geometric mixing rule
Step          Temp          Press
0   503.56324      1691.4409
Averages over the last 251 of 501 rows, steps 25000 to 50000:
Temp Press
499.855 -30.3436
Loop time of 201.615 on 6 procs for 50000 steps with 10000 atoms

unfix           1
unfix           2
write_restart   restart.PE_nc10_cl1000.dreiding2
System init for write_restart ...
Generated 0 of 0 mixed pair_coeff terms from geometric mixing rule

# Equilibration Stage 3 (NPT dynamics from 500 K --> 100 K)
fix             1 all npt temp 500 100 50 iso 0 0 1000 drag 2
fix             2 all momentum 1 linear 1 1 1
thermo_style    custom step temp press
thermo          10
timestep        0.5
reset_timestep  0
run             50000
Generated 0 of 0 mixed pair_coeff terms from geometric mixing rule
Step          Temp          Press
0   497.95872     -34.404745
Averages over the last 2501 of 5001 rows, steps 25000 to 50000:
Temp Press
203.439 -21.6527
Loop time of 216.698 on 6 procs for 50000 steps with 10000 atoms

unfix           1
unfix           2
write_restart   restart.PE_nc10_cl1000.dreiding3
System init for write_restart ...
Generated 0 of 0 mixed pair_coeff terms from geometric mixing rule

# Equilibration Stage 4 (NPT dynamics at 100 K)
fix             1 all npt temp 100 100 50 iso 0 0 1000 drag 2
fix             2 all momentum 1 linear 1 1 1
thermo_style    custom step temp press epair ebond eangle edihed pxx pyy pzz lx ly lz
thermo          10
timestep        0.5
reset_timestep  0
run             50000
Generated 0 of 0 mixed pair_coeff terms from geometric mixing rule
Step          Temp          Press          E_pair         E_bond        E_angle        E_dihed          Pxx            Pyy            Pzz             Lx             Ly             Lz
0   103.08193      213.11319     -14422.7        917.0785       1223.8866      3891.3125      408.09796      54.503007      176.73859      64.861515      64.861515      64.861515
Averages over the last 2501 of 5001 rows, steps 25000 to 50000:
Temp Press E_pair E_bond E_angle E_dihed Pxx Pyy Pzz Lx Ly Lz
99.9971 -0.266101 -14471 896.477 1206.2 3795.47 86.8485 -30.5484 -57.0984 64.7742 64.7742 64.7742
Loop time of 261.878 on 6 procs for 50000 steps with 10000 atoms

unfix           1
unfix           2
write_restart   restart.PE_nc10_cl1000.dreiding4
System init for write_restart ...
Generated 0 of 0 mixed pair_coeff terms from geometric mixing rule

# Uniaxial Tensile Deformation
run             0
Generated 0 of 0 mixed pair_coeff terms from geometric mixing rule
Step          Temp          Press          E_pair         E_bond        E_angle        E_dihed          Pxx            Pyy            Pzz             Lx             Ly             Lz
50000   100.04095     -240.13278     -14493.792      912.53379      1214.3433      3795.7331     -130.04956     -288.50854     -301.84023      64.772326      64.772326      64.772326
Loop time of 3.29167e-06 on 6 procs for 0 steps with 10000 atoms

variable        tmp equal "lx"
variable        L0 equal 64.7723259446655
variable        strain equal "(lx - v_L0)/v_L0"
variable        p1 equal "v_strain"
variable        p2 equal "-pxx/10000*1.01325"
variable        p3 equal "-pyy/10000*1.01325"
variable        p4 equal "-pzz/10000*1.01325"
variable        p5 equal "lx"
variable        p6 equal "ly"
variable        p7 equal "lz"
variable        p8 equal "temp"
variable        t2 equal "epair"
variable        t3 equal "ebond"
variable        t4 equal "eangle"
variable        t5 equal "edihed"
fix             1 all npt temp 100 100 50 y 0 0 1000 z 0 0 1000 drag 2
fix             2 all deform 1 x erate 1e-5 units box remap x
thermo_style    custom step temp pxx pyy pzz lx ly lz epair ebond eangle edihed
thermo          100
timestep        1
reset_timestep  0
run             171800
Generated 0 of 0 mixed pair_coeff terms from geometric mixing rule
Step          Temp           Pxx            Pyy            Pzz             Lx             Ly             Lz           E_pair         E_bond        E_angle        E_dihed
0   100.04095     -130.04956     -288.50854     -301.84023      64.772326      64.772326      64.772326     -14493.792      912.53379      1214.3433      3795.7331
Averages over the last 860 of 1719 rows, steps 85900 to 171800:
Temp Pxx Pyy Pzz Lx Ly Lz E_pair E_bond E_angle E_dihed
100.126 -1131.95 -10.4525 -8.70186 148.231 42.4366 46.514 -13758.1 748.846 1275.72 3902.8
Loop time of 836.191 on 6 procs for 171800 steps with 10000 atoms

unfix           1
unfix           2
unfix           def1
unfix           def2
print           "All done"
All done
