LAMMPS (2 Aug 2023)

# merge PEG with H2O

units real
atom_style full
bond_style harmonic
angle_style harmonic
dihedral_style harmonic
pair_style lj/cut/coul/long 12
kspace_style pppm 1e-5
special_bonds lj 0.0 0.0 0.5 coul 0.0 0.0 1.0 angle yes dihedral yes

read_data ../pureH2O/H2O.data extra/bond/per/atom 2 extra/angle/per/atom 5 extra/dihedral/per/atom 9
Reading data file ...
  orthogonal box = (-12.058841 -12.058841 -12.058841) to (60.294206 12.058841 12.058841)
  reading atoms ...
  3150 atoms
  reading velocities ...
  3150 velocities
  scanning bonds ...
  scanning angles ...
  reading bonds ...
  2100 bonds
  reading angles ...
  1050 angles
Finding 1-2 1-3 1-4 neighbors ...
     2 = max # of 1-2 neighbors
     1 = max # of 1-3 neighbors
     1 = max # of 1-4 neighbors
     2 = max # of special neighbors
read_data ../singlePEG/PEG.data add append shift 25 0 0
Reading data file ...
  orthogonal box = (-12.058841 -12.058841 -12.058841) to (60.294206 12.058841 12.058841)
  reading atoms ...
  66 atoms
  reading velocities ...
  66 velocities
  scanning bonds ...
  scanning angles ...
  scanning dihedrals ...
  reading bonds ...
  65 bonds
  reading angles ...
  118 angles
  reading dihedrals ...
  135 dihedrals
Finding 1-2 1-3 1-4 neighbors ...
     4 = max # of 1-2 neighbors
     6 = max # of 1-3 neighbors
    12 = max # of 1-4 neighbors
    14 = max # of special neighbors
include ../PARM.lammps
mass 1 15.9994 # H2O O
mass 2 1.008 # H2O H
mass 3 12.011 # CC32A
mass 4 15.9994 # OC30A
mass 5 1.008 # HCA2
mass 6 15.9994 # OC311
mass 7 1.008 # HCP1

pair_coeff 1 1 0.119431704 3.400251
pair_coeff 2 2 0.0 0.0
pair_coeff 3 3 0.25265643 2.8491607
pair_coeff 4 4 0.06630155 3.5811794
pair_coeff 5 5 0.028293679 2.373408
pair_coeff 6 6 0.0 0.0
pair_coeff 7 7 0.11949714 3.1000042

bond_coeff 1 442.1606 0.972
bond_coeff 2 1109.2926 1.12
bond_coeff 3 399.79163 1.43
bond_coeff 4 400.0343 1.53
bond_coeff 5 179.2543 0.971
bond_coeff 6 155.35373 1.42

angle_coeff 1 47.555878 103.0
angle_coeff 2 30.173132 109.5
angle_coeff 3 47.69405 109.5
angle_coeff 4 55.113907 111.0
angle_coeff 5 65.47197 111.3
angle_coeff 6 54.993103 110.3
angle_coeff 7 55.0234 111.4
angle_coeff 8 180.46019 109.0
angle_coeff 9 30.173132 110.0

dihedral_coeff 1 0.30114722 1 3
dihedral_coeff 2 1.414914 1 3
dihedral_coeff 3 0.0 1 1

group H2O type 1 2
3150 atoms in group H2O
group PEG type 3 4 5 6 7
66 atoms in group PEG

delete_atoms overlap 2.0 H2O PEG mol yes
System init for delete_atoms ...
PPPM initialization ...
  G vector (1/distance) = 0.24948001
  grid = 40 18 18
  stencil order = 5
  estimated absolute RMS force accuracy = 0.0032107033
  estimated relative force accuracy = 9.6689375e-06
  3d grid and FFT values/proc = 29375 12960
Generated 21 of 21 mixed pair_coeff terms from geometric mixing rule
Deleted 90 atoms, new total = 3126
Deleted 60 bonds, new total = 2105
Deleted 30 angles, new total = 1138
Deleted 0 dihedrals, new total = 135

fix mynpt all npt temp 300 300 100 x 1 1 1000
timestep 1.0

dump mydmp all atom 100 dump.lammpstrj
thermo 100
variable mytemp equal temp
variable myvol equal vol
fix myat1 all ave/time 10 10 100 v_mytemp file temperature.dat
fix myat2 all ave/time 10 10 100 v_myvol file volume.dat

variable myenthalpy equal enthalpy
fix myat3 all ave/time 10 10 100 v_myenthalpy file enthalpy.dat

run 10000
PPPM initialization ...
  G vector (1/distance) = 0.24947862
  grid = 40 18 18
  stencil order = 5
  estimated absolute RMS force accuracy = 0.0031637513
  estimated relative force accuracy = 9.5275432e-06
  3d grid and FFT values/proc = 29375 12960
Generated 21 of 21 mixed pair_coeff terms from geometric mixing rule
Step          Temp          E_pair         E_mol          TotEng         Press          Volume
0   304.99452     -7585.123       1370.9014     -3373.1881     -296.05117      42085.063
Averages over the last 51 of 101 rows, steps 5000 to 10000:
Temp E_pair E_mol TotEng Press Volume
299.296 -7745.01 1380.16 -3576.9 241.908 42190.8
Loop time of 169.906 on 1 procs for 10000 steps with 3126 atoms

write_data mix.data
System init for write_data ...
PPPM initialization ...
  G vector (1/distance) = 0.24976186
  grid = 40 18 18
  stencil order = 5
  estimated absolute RMS force accuracy = 0.0031160485
  estimated relative force accuracy = 9.3838874e-06
  3d grid and FFT values/proc = 29375 12960
Generated 21 of 21 mixed pair_coeff terms from geometric mixing rule
