LAMMPS (29 Oct 2020)
# Production Run

## Initialization and membrane drilling

boundary s p p
pair_style lj/cut 2.5

read_data ../SystemEquilibration/data.lammps
Reading data file ...
  orthogonal box = (-26.729703 -7.9370053 -7.9370053) to (30.012840 7.9370053 7.9370053)
  reading atoms ...
  3000 atoms
  reading velocities ...
  3000 velocities

region right block 0 INF INF INF INF INF

group solid type 1 2 3
1400 atoms in group solid
group piston_left type 1
600 atoms in group piston_left
group membrane type 2
200 atoms in group membrane
group piston_right type 3
600 atoms in group piston_right
group fluid type 4 5
1600 atoms in group fluid
group solvent type 4
1550 atoms in group solvent
group solute type 5
50 atoms in group solute

neigh_modify exclude group solid solid
neigh_modify every 1 delay 5 check yes

# // delete 50% atoms randomly of the membrane
region membrane block -0.25 0.25 INF INF INF INF
delete_atoms porosity membrane 0.5 482793
Deleted 94 atoms, new total = 2906
# // or
# // delete_atoms random fraction 0.5 no all membrance 482793 # for newer lammps version

## Dynamics and data print

fix mynve all nve
compute temperature_fluid fluid temp
fix mylgv fluid langevin 1.0 1.0 0.1 1530917 zero yes
fix_modify mylgv temp temperature_fluid
thermo_modify temp temperature_fluid

fix mysf1 membrane setforce 0 0 0
fix mysf2 piston_left setforce NULL 0 0
fix mysf3 piston_right setforce NULL 0 0
variable F equal 0.025
fix myaf1 piston_left aveforce 0.025 NULL NULL
fix myaf2 piston_right aveforce -0.025 NULL NULL

## Outputs
variable solvent_right equal count(solvent,right)
variable solute_right equal count(solute,right)
variable position_piston_left equal xcm(piston_left,x)
variable position_piston_right equal xcm(piston_right,x)

fix myat1 all ave/time 1000 1 1000 v_solvent_right file solvent_right.dat
fix myat2 all ave/time 1000 1 1000 v_solute_right file solute_right.dat
fix myat3 all ave/time 1000 1 1000 v_position_piston_left file position_piston_left.dat
fix myat4 all ave/time 1000 1 1000 v_position_piston_right file position_piston_right.dat
fix myat5 all ave/time 10 1000 10000 f_mysf1[1] file force_membrane.dat

dump mydmp all atom 10000 dump.lammpstrj

## Run
thermo 10000
run 1000000
  update every 1 steps, delay 5 steps, check yes
Step Temp E_pair E_mol TotEng Press Volume
0    1.0133252   -1.1347808            0  -0.29842144  0.030099824    14297.726
Averages over the last 51 of 101 rows, steps 500000 to 1000000:
Temp E_pair E_mol TotEng Press Volume
0.998945 -1.09914 0 -0.274651 0.0432154 13661.2
Loop time of 514.76 on 1 procs for 1000000 steps with 2906 atoms
